<?xml version="1.0" encoding="UTF-8"?>

<!-- generated on Sun Mar 17 09:08:23 2019 by Eclipse SUMO duarouter Version 1.1.0
<configuration xmlns:xsi="http://www.w3.org/2001/XMLSchema-instance" xsi:noNamespaceSchemaLocation="http://sumo.dlr.de/xsd/duarouterConfiguration.xsd">

    <input>
        <net-file value="traffic/london.net.xml"/>
        <route-files value="traffic/london6pm.trips.xml"/>
    </input>

    <output>
        <output-file value="traffic/london6pm.rou.xml"/>
        <alternatives-output value="traffic/london6pm.rou.alt.xml"/>
    </output>

</configuration>
-->

<routes xmlns:xsi="http://www.w3.org/2001/XMLSchema-instance" xsi:noNamespaceSchemaLocation="http://sumo.dlr.de/xsd/routes_file.xsd">
    <vehicle id="0" depart="0.00">
        <route edges="-471980165 148685789#4 203406006 563008389#0 563008389#1 563008389#2 619866626 326202222 326202221#0 326202221#2 439081199#0 -416965843 -36101971#2 -2424000#2 -317900060 317900064 456796604 456796602 -2424001#7 -2424001#6 -2424001#5 -2424001#4 -2424001#2 -2424001#0 155451001#0 155451001#1 155451001#2 155451001#3 49780450#0 49780450#1 106485929 3727764#0 3727764#2 48741698#0 48741698#1 48741698#2 7225343#0 7225343#1 230188922#0 230188922#1 230188922#2 230189129#0 230189129#1 -230191864#2 -230191864#1 -183555228 183555239#0 230191865#1 -211899528#1 -494919511 494919513#0 183555214 183555213 183555216 183555222 211899915#1 183555212 3712711#1 3712711#2 3712711#3 3712711#4 560997136#1 560997136#3 560997135#0 560997135#1 554526#0 554526#2 554526#3 554526#4 554526#8 615035502#0 615035502#1 615035501#0 -478293175#4 -478293175#1 -217408671 -491092295#1 -491092295#0 188447766 651632124 157115250 651632128 316976823#0 316976823#2 316976820#0 316976816 316976819#1 316976824 662524512#0 662524512#1 219026697 244543112#0 244543112#1 662524520#0 662524520#1 204345004#1 204345004#2 244541428 244541421#0 244541421#2 244541421#3 205238543 97489593#0 97489593#1 449148059#0 449148059#2 205237170#0 205237170#1 5598943 110265357"/>
    </vehicle>
    <vehicle id="1" depart="0.28">
        <route edges="-3754852 -369663857 -155341957#1 -155341957#0 627472868#2 627472868#3 627472868#5 562832542 3754854#0 3754854#2 491924101 2953548#0 2953548#2 2953548#3 3076785#0 3076785#1 3076785#2 3076785#3 3076785#5 3076785#6 3076785#7 3076785#8 18942154#0 18942154#1 4255336 4259663#0 4259663#1 479911430#0 479911430#1 461729140#0 224300397#1 25247811#1 25247811#2 25247811#3 25247744#0 25247744#1 4270740#0 4270740#2 4270740#3 4270740#4 18131101 4253627 4253628#3 4253628#4 4253628#6 4260381#0 4260381#3 459998651 459998653 4267625#0 4267625#1 4267625#2 4260441#1 47009937#0 4260439#1 -4260439#1"/>
    </vehicle>
    <vehicle id="2" depart="0.56">
        <route edges="6012207#2 5067434#5 5067434#6 4839584 -4336664#5 4839579#0 4839579#1 4839579#2 246647169#5 38770925#0 38770925#1 38770925#2 38771996#0 207811355 207811356#0 207811356#1 217063331#0 -166594098#1 -293598611 -4253691#5 -4253691#4 -4253691#3 -4253691#2 -4253691#1 -4253691#0 615815477 419114924#0 419114924#1"/>
    </vehicle>
    <vehicle id="3" depart="0.83">
        <route edges="4254683#5 -6266180#3 -6266180#2 -257776873#2 -257776874#2 -257776874#1 -257776874#0 39941506 -4340872 534031399#1 3755162#0 3755162#1 3755162#2 584351059 3755163 42528780 -257778375#0 -73058390 -257779020#2 -582946706 -582952346#3 -582952346#2 -582952346#1 -582952346#0 -582946708 -73058399#0 -292728155 -582952331 -627470400 -121992542#2 -121992542#1 -121992542#0 121992541#0 208175125 544787767 208175123 -670555714#1 -670555714#0 -187870646#1 -187870646#0 -4371832#7 -4371832#6 -4371832#5 -4371832#4 -4371832#3 -4371832#2 -4371832#1 511856173#0 511856173#1 511856173#2 483743286#0 4255356#0 4255356#1 4255356#2 -49797451#4 -49797451#2 -49797451#1 -49797451#0 -4074309#2"/>
    </vehicle>
    <vehicle id="4" depart="1.11">
        <route edges="99954127#4 4253975#1 4253975#2 4256083#2 -206540060#1 -206540060#0 -252350539#1 -252350539#0 252351104 252347407#0 252347407#2 252345510#0 252345510#1 40927807#0 40927807#1 -82965239#2 -82965239#1 -637043151#1 -260343788#7 -260343788#4 -260343788#3 -260343788#2 -260343788#1 -405587427#2 103077942 178496159#0 178496159#1 195364662#1 227389475#0 217063331#0 2495401 657134494#1 217063733 -38771996#1 -38770925#2 -38770925#1 -38770925#0 -246647169#5 -246647169#4 -246647169#3 -246647169#2 -246647169#0 -628446081 -250328433#2 -250328433#1 -250328427#2 -250328427#0 -250328430#4 -250328430#3 -250328430#1 -236678750#2 -236678750#1 -236678750#0 -250325162 -250325163#1 -250325163#0 -493711859#3 -493711859#1 -250325173 -493711858#2 -493711858#1 -493711858#0 -250325164 -250325170#0 201760800 201760880#0 120241877 76848433 2428140#1 2428140#2 2428140#4 650317761 205586178#1 205586178#2 201758599 -670636345 -609061152#1 609061151#0 609061151#1 -330481 41518094#0 41518094#3 41518094#4 41518094#5 -160532844#6 -160532844#4 -160532844#3 -160532844#2 -234295188#3 -234295188#0 -197476980#5 -197476980#4 -197476980#3 -197476980#2 -197476980#0 -75687499#3 330341#1 330341#2 330341#3 330341#4 75687497 316805865 109850046#1 109850046#2 648541444 234296720 234296718#2 41518097 591922929 36814928#0 367808660 380467039#0 380467037 61904421#1 61904421#3 49932192 234575099#0 234575099#2 38060076#0 38060076#1 17513377 17513378#1 292801791#0 41910721#1 24936218#1 24936216#0 49934847#1 379356922 527096914#0 527096914#1 40606945#0 589644425#0 589644425#1 31030#1 31030#2 31030#3 31030#4 41588174#0 589640599#1 674756318 156333054 294658107 -294658107"/>
    </vehicle>
    <vehicle id="5" depart="1.39">
        <route edges="-14490609#1 -14490609#0 112581027#3 112581027#4 25606681#0 -287519488#6 -287519488#5 -287519488#4 -287519488#2 -329389068#1 -329389067#0 -5896985#1 -5896985#0 -329389065#2 -329389065#1 -329389070#2 458037660 458037658#0 -458037834 171689973#1 -661061188#0 -171689970#1 -171689970#0 4610429 250107474 -4610431 -206540060#0 -252350539#1 -252350539#0 252351104 252347407#0 252347407#2 252345510#0 252345510#1 40927807#0 40927807#1 -82965239#2 -82965239#1 -637043151#1 -260343788#7 -260343788#4 -260343788#3 -260343788#2 -260343788#1 -405587427#2 103077942 178496159#0 178496159#1 195364662#1 227389475#0 217063331#0 2495401 657134494#1 3076852 227387820 596680099 596680098#0 596680098#1 596680098#4 596680098#7 596680098#8 100514387#0 100514387#3 100514387#5 166594102#0 166594100 166594097 166594099#0 166594099#1 166594103 -257776030#1 -596678293#5 -596678293#4 -596678293#3 -596678293#2 -596678293#1 -596678293#0 -100514384#1 -257778376 -257778375#3 -257778375#2 -257778375#0 -73058390 -517613525#0 -552492779 -670642182#1 545048170#0 545048170#1 422323611#1 3700585#0 3700585#1 3700585#2 3700585#3 3700585#4 3700585#5 3700585#6 155894306 155894302 2850776#0 2850776#2 2850776#3 2850776#4 -608159133 608159142 -156159278#1"/>
    </vehicle>
    <vehicle id="6" depart="1.67">
        <route edges="-99960632 99960632 -5030941#3 -5030941#2 -5030941#1 -478293162#1 -217408671 -491092295#1 -491092295#0 188447766 651632124 157115250 651632128 316976823#0 5882766#2 39657196#0 39657196#1 39657196#2 39657196#3 173295283#0 173295283#1 173295283#2 173295282 39335879#2 -244550853#7 -244550853#4 -244550853#2 -244550853#1 -253741555#3 -253741555#1 -253741553 -4260398#1 -4260398#0 -4984244 252345506#0 252345506#2 252345510#0 252345510#1 40927807#0 40927807#1 -82965239#2 -82965239#1 -637043151#1 -260343788#7 -260343788#4 -260343788#3 -260343788#2 -260343788#1 -405587427#2 103077942 178496159#0 178496159#1 195364662#1 227389475#0 217063331#0 2495401 657134494#1 217063733 -38771996#1 -38770925#2 -38770925#1 -38770925#0 -246647169#5 -246647169#4 -246647169#3 -246647169#2 -246647169#0 -628446081 -250328433#2 -250328433#1 -250328427#2 -250328427#0 -250328430#4 -250328430#3 -250328430#1 -236678750#2 -236678750#1 -236678750#0 -250325162 -250325163#1 -250325163#0 -493711859#3 -493711859#1 -250325173 -493711858#2 -493711858#1 -493711858#0 -250325164 -250325170#0 201760800 201760880#0 120241877 76848433 2428140#1 2428140#2 2428140#4 650317761 205586178#1 205586178#2 201758599 -670636345 -609061152#1 609061151#0 609061151#1 -330481 -2467171#3 -2467171#0 4484039#0 -48379493 -47009633#4 -47009633#3 -47009633#2 -47009633#1 -534024686#8 157467037 19742812#0 19742812#1 19742811#0 19742811#2 495531508 311561496 18942158#3 -99961288#5 -99961288#4 -99961288#3 -99961288#1 -202053028#6 -202053028#5 -27929741#8 -27929741#7 -32636450#1 32636450#1"/>
    </vehicle>
    <vehicle id="7" depart="1.95">
        <route edges="-538646992#1 538646992#1 195361774#2 48379485#1 195361781#0 195361781#1 195361781#2 195361754 670259498#0 670259498#1 -4536606#3 -4536606#2 -4536606#1 -4536606#0 -4321604#4 -4839795#2 -4839795#1 -4839795#0 -231133301#1 -231133301#0 -38876076 -4839805#1 -4839805#0 -100614548#0 -4839806#0 38876077#0 5067434#0 5067434#2 5067434#3 5067434#5 5067434#6 5067434#7 5067434#8 5067434#10 38876078#0 17983300 174660853#1 174660853#2 -174660854#1 -174660854#0 2417071#4 2417071#5 236678750#0 -236678750#0 -250325162 -250325163#1 -250325163#0 -493711859#3 -493711859#1 -250325173 -493711858#2 -493711858#1 -493711858#0 -250325164 -250325170#0 201760800 201760880#0 120241877 76848433 2428140#1 2428140#2 2428140#4 650317761 205586178#1 205586178#2 201758599 -670636345 -609061152#1 609061151#0 609061151#1 -330481 41518094#0 41518094#3 41518094#4 41518094#5 -160532844#6 -160532844#4 -160532844#3 -160532844#2 -234295188#3 -234295188#0 -197476980#5 -197476980#4 -197476980#3 -197476980#2 -197476980#0 -75687499#3 330341#1 330341#2 330341#3 330341#4 75687497 316805864 63972387 648564129 61730114#1 38427087#0 166364278#0 -84697865#3 -84697865#0 -546461336 -534676028 -534676024#1 -534676024#0 -3100051"/>
    </vehicle>
    <vehicle id="8" depart="2.22">
        <route edges="-6012202#0 18122224#1 18122224#2 18122224#3 18122224#4 18122224#5 -207807963#3 -207807963#2 38876078#0 38876078#1 38876078#4 38876078#5 38876078#6 628446083#0 628446083#2 246647169#0 246647169#1 246647169#3 246647169#4 246647169#5 38770925#0 38770925#1 38770925#2 38771996#0 207811355 207811356#0 207811356#1 33306911#0 227388272 227388622#0 227388622#1 222255965#0 222255965#1 23124419 405587427#0 260343788#0 260343788#2 260343788#3 260343788#4 260343788#7 637043151#0 82965239#0 82965239#2 -40927807#1 -40927807#0 252345499#0 252345499#2 252347406#0 252347406#1 252347405 4984244 238386369 4260398#1 253741553 253741555#0 253741555#3 244550853#0 244550853#2 244550853#3 244550853#7 39335878 39335877#0 39335877#1 156866875 76130417 161720542#4 161720542#5 161720542#7 244815121 316976807#0 316976816 316976819#1 3640469#1 219027695#0 219027695#1 244894544#0 244894661 244894662 244895550#1 244541419#0 5600566 244541423"/>
    </vehicle>
    <vehicle id="9" depart="2.50">
        <route edges="99961287#3 99961287#4 99961287#6 99961287#7 47009514#0 47009514#1 166482670#0 47009515#0 47009515#2 -19742812#1 -19742812#0 -157467037 534024686#7 47009633#0 47009633#2 47009633#3 47009633#4 48379497#1 48379490 233811550#0 233811550#1 2467171#0 2467171#1 330481 47047809#0 47047809#1 609061152#0 670636345 609061150 201759853#1 201759853#2 496742426 496742428 201760799 77105053#0 250325170#2 493711858#0 493711858#1 493711858#2 250325173 493711859#0 493711859#2 493711859#4 250325163#1 250325162 236678750#0 236678750#1 236678750#2 250328430#0 250328430#3 250328430#4 250328430#5 250328427#2 250328433#0 250328433#2 628446081 246647169#0 246647169#1 246647169#3 246647169#4 246647169#5 38770925#0 38770925#1 38770925#2 38771996#0 207811355 207811356#0 207811356#1 217063331#0 -166594098#1 -293598611 -4253691#5 -4253691#4 -4253691#3 -4253691#2 -4253691#1 -4253691#0 615815477 40712079#0 40712079#1 40712079#3 -40712079#3"/>
    </vehicle>
    <vehicle id="10" depart="2.78">
        <route edges="26291686#1 26291686#2 26291686#3 2483869 29078577#0 34083181 154540890 154540881#0 154540881#1 154540881#2 154540881#3 201760800 201760880#0 120241877 76848433 2428140#1 -609056649 4352143#0 4352143#1 -38752553#1 2831540#0 2831540#1 30193920#0 30193920#2 146590642#1 146590642#2 534082989#0 534082989#1 32592872 146418648#0 146418648#1 146418648#2 146418648#3 61074713#1 -61074704 -135694809#5 -135694809#4 -135694809#3 2592183 82965853#0 82965853#1 166364279#12 2631515#0 2631515#1 157547569#1 -3088642#1"/>
    </vehicle>
    <vehicle id="11" depart="3.06">
        <route edges="6578315#0 -6578329#2 -17513366#2 -26362794#0 -539939480 539939479#0 539939479#1 642417296 26362792#0 26362792#2 26362792#4 47048375#0 99961322#0 99961322#1 99961322#2 99961322#3 99961322#4 237396757 371312478#0 371312478#1 237396755#1 237396922#2 374047987#0 374047987#1 374047987#2 374047987#3 374047987#5 374047987#6 237396923 2466941#0 2466941#2 2466941#4 2466941#5 2466941#6 2466941#7 2466941#9 2466941#10 2466941#11 2466941#12 47048136#0 47048136#3 47048136#4 47048136#5 47048136#6 47009514#0 47009514#1 166482670#0 47009515#0 47009515#2 -19742812#1 -19742812#0 -157467037 534024686#7 47009633#0 47009633#2 47009633#3 47009633#4 48379497#1 48379490 233811550#0 233811550#1 2467171#0 2467171#1 330481 47047809#0 47047809#1 609061152#0 670636345 609061150 201759853#1 201759853#2 496742426 496742428 201760799 77105053#0 250325170#2 493711858#0 493711858#1 493711858#2 250325173 493711859#0 493711859#2 493711859#4 250325163#1 250325162 236678750#0 236678750#1 236678750#2 250328430#0 250328430#3 250328430#4 250328430#5 250328427#2 250328433#0 250328433#2 628446081 246647169#0 246647169#1 246647169#3 246647169#4 246647169#5 38770925#0 38770925#1 38770925#2 38771996#0 207811355 207811356#0 207811356#1 217063331#0 -166594098#1 -293598611 -4253691#5 -4253691#4 -4253691#3 -4253691#2 -4253691#1 -4253691#0 -578174541 -578170386 -166585554#0 442428176#0 442428176#1 -4253666#3 -4253666#2 581735921#1 -3713102#3 73823310 581729093#2 581729093#4 581729092#0 581729092#1 581729092#2 581729092#3 3712716#0 3712716#2 3712716#3 183555226 211901833 183555216 183555222 211899915#1 183555212 3712711#1 3712711#2"/>
    </vehicle>
    <vehicle id="12" depart="3.34">
        <route edges="27292992#0 -27292992#0 -237559987#12 -237559987#11 30691665 -181799764#5 -181799764#3 -181799764#2 -181799764#0 -598147041#4 -598147041#1 -598147041#0 -313842642 313842644 -2418032#1 -250754905#1 -23180860#14 -23180860#13 -23180860#12 -23180860#11 -23180860#10 -23180860#8 -23180860#6 -23180860#5 -23180860#4 -23180860#2 2415184#0 2415184#1 2415184#2 2415184#3 313583263#0"/>
    </vehicle>
    <vehicle id="13" depart="3.61">
        <route edges="-4255086#0 670555714#1 670555712#0 670555712#2 544787772 208175126#1 121992542#0 121992542#1 121992542#2 4255357#0 4255357#2 4255357#3 4255376 -225681238#3 -225681238#2 4255805#1 4255805#2 4255805#3 4255808#0 4255808#2 503247145#0"/>
    </vehicle>
    <vehicle id="14" depart="3.89">
        <route edges="49797451#0 49797451#1 49797451#2 49797451#4 49797450#1 496107413#0 496107413#1 496107413#2 496107413#3 496107413#4 496107413#5 331994955#1 331994955#2 49932210#0 49932210#1 -544787766#5 -544787766#3 -544787766#2 -544787766#1 -544787766#0 4364707#2 4364707#3 4364707#4 4364707#5 4364707#6 237969985 -3242878 544787772 208175126#1 121992542#0 121992542#1 121992542#2 4255357#0 4255357#2 4255357#3 4255376 -225681238#3 -225681238#2 -225681238#0 -47009681#4 -47009681#3 -47009681#1 47009721#0 596678293#1 596678293#2 596678293#3 596678293#4 596678293#5 257776030#0 -257776031#1 -166594099#1 -166594099#0 -612050466 -166594100 -596678291 -596678299#1 -100514387#3 -100514387#1 -596680098#8 -596680098#7 -596680098#6 -596680098#3 -596680098#0 -596680099 -596680097 -657134509 217063733 207811355 207811356#0 207811356#1 33306911#0 227388272 227388622#0 227388622#1 222255965#0 222255965#1 23124419 401128351 23124416#0 23124416#1 195364661#1 195364661#2 364043290#0 40927808#0 40927808#2 38765441#1 -246288220#6 -246288220#5 -246288220#4 -246288220#3 -246288220#2 -246288220#1 -246288220#0 -246288222#1 -246288222#0 -655775839#12 -655775839#9 -655775839#8 -655775839#7 -5924483#4 -5924483#3 -5924483#2 -5924483#1 8297011#0 8297013#2 8297013#3 8297013#4 649646585#2 246286774#0 372812102#9 372812102#10 372812102#11 372812102#12 372812102#14 372812102#15 372812102#16 372812102#17 372812102#18 372812102#20 -4237012#3 -4237012#0 4984506#0 4984506#1 4368455#0 206555769#1 206555769#2 206555769#5 -4368461#1 4368461#1"/>
    </vehicle>
    <vehicle id="15" depart="4.17">
        <route edges="244550575 627611961 52069495 627611967 244543108 228773921#1 293352937#0 375512926#0 375512926#1 375512926#2 375512926#3 375512926#4 4551589#0 4720020#0 -38900541#8 -38900541#6 -38900541#5 -38900541#4 -38900541#2 -42366123#4 -42366123#2 -42366123#1 -230191247#1 -230191247#0 -211900222 183555238#0 211900221#1 183555233 183555232 183555237 639253770 494926892 494919511 211899528#0 211901834#0 211901834#1 -3709266 -112697637#2 -112697637#1 -230188926#3 -230188926#1 39123708#5 230190210#1 183499308 39123707 183499302#0 183499302#1 -48741698#2 -48741698#1 -48741698#0 -3727764#2 -3727764#1 -106485929 -49780450#1 -49780450#0 -155451001#3 -155451001#2 -155451001#1 -155451001#0 2424001#0 2424001#1 2424001#4 2424001#5 2424001#6 2424001#7 -456796602 456796603 -317900064 -85257729#1 30881920#1 456787731#1 456787730 619867272#1 619867272#6 619867272#8 619867272#9 619867272#11 619867272#12 511856173#0 511856173#1 511856173#2 483743286#0 4255356#0 4255356#1 4255356#2 -49797451#4 -49797451#2 -49797451#1 -49797451#0"/>
    </vehicle>
    <vehicle id="16" depart="4.45">
        <route edges="409803265 8430597#1 -8430599#1 -8430599#0 -8173303 161716911#2 173295283#0 173295283#1 173295283#2 173295282 39335879#2 -244550853#7 -244550853#4 -244550853#2 -244550853#1 -253741555#3 -253741555#1 -253741553 -4260398#1 -4260398#0 -4984244 252345506#0 252345506#2 252345510#0 252345510#1 40927807#0 40927807#1 -82965239#2 -82965239#1 612050468 637043146 637043141 82965238#1 82965238#2 82965238#3 82965238#4 82965238#5 157021548#0 -364043290#3 -195364661#4 -6005701 6005702#0 6005705 -79212461#1 -79212461#0 222258280#1 222258280#2 222258280#4 222258280#5 222258280#6 22780695#1 22780695#2 -383210219#2 -383210219#1 -383210219#0 227558614 238183056 -227559184#0 -207807966#5 -207807966#4 -207807966#3 -207807966#2 -207807966#1 -207807966#0 -231133384#4 -231133384#3 -231133384#2 -5831299#3 -5831299#0 -534022320#8 -534022320#7 -534022320#6 -534022320#5 -534022320#4 -534022320#3 -534022320#2 -534022320#1 -534022320#0 -534022322#1 4370468#0 4370468#1 232717964#3 232717964#4 68501768#2 -376315345#3 -376315345#2 -376315345#1 230843110#4 230843110#5 202052944#0 202052944#1 202052944#2 202052944#4 202052944#5 202052944#6 199771388#0 199771388#2 199771388#3 199514520#0 -23188756#5 -23188756#4 -23188756#3 -23188756#2 23188756#2"/>
    </vehicle>
    <vehicle id="17" depart="4.73">
        <route edges="225465142#0 225465142#1 602799890#4 602799890#5 -121904678#1 -121904678#0 211956502 8591250#0 4680851#0 4680851#1 4680851#2 26781036#0 26781036#1 107190663 139291982#3 122056180 224187706#1 122056182 224187822 542829556#0 542829556#1 18309856#0 224187818#2 224187818#3 224187818#5 207529550#0 207529550#1 207529550#2 207529549 116974799#0 116974799#2 201303145 279154266 279154270#1 279154270#2 35085540 235993022#0 235993022#1 235992911#0 235992911#2 41518102#1 311804827#0 311804827#1 49934843#0 49934843#1 9616291 306452424#0 306452424#1 2876904#1 2876904#5 2876904#6 527084929 527084930#1 8169022#0 8169022#1 605454355#0 605454355#1 10064542 438313419 49932204#0 49932204#2 49932204#3 49932204#4 49932204#5 166364279#9 166364279#10 166364279#11 166364279#12 166364279#13 166364279#14 166364279#15 2953567#0 73058385 222518282#0 222518282#1 314995531#0 314995531#1 314995531#2 314995531#3 314995531#4 314995531#5 314995531#6 4256724 30609421#1"/>
    </vehicle>
    <vehicle id="18" depart="5.00">
        <route edges="-25359282#5 -25359282#4 -25359282#3 -25359282#2 -25359282#1 -25359282#0 -16295492 76590370#2 236881840#0 236881840#1 236881840#2 236881840#5 236881841 238913756#1 238913756#2 238913756#3 238913756#4 238913756#5 238913756#6 238913756#7 8386786#0 8386786#1 8386786#3 238913649#0 238913649#1 238913649#2 -8386795#3 -8386795#1 -8386795#0 -2466941#5 -2466941#4 -2466941#2 -2466941#1 159483599#0 159483599#3 557519243#0 557519243#1 557519243#3"/>
    </vehicle>
    <vehicle id="19" depart="5.28">
        <route edges="303559642 -17926243 3100051 534676024#0 534676024#1 534676028 546461336 546461337 84697865#1 -166364278#2 -38427087#0 216871680#0 216871680#1 36814927#1 648541444 234296720 234296718#2 41518097 591922929 591922928#0 591922928#2 449113135#0 41518099 2509157 379356932 89991893 197476574 197476947#0 197476948#0 89992219#0 89992219#1 75687499#2 197476980#0 197476980#2 197476980#3 197476980#4 197476980#5 234295188#0 234295188#1 160532844#0 160532844#3 160532844#4 160532844#5 -41518094#5 -41518094#4 -41518094#3 -41518094#2 330481 47047809#0 47047809#1 609061152#0 670636345 609061150 201759853#1 201759853#2 496742426 496742428 201760799 77105053#0 250325170#2 493711858#0 493711858#1 493711858#2 250325173 493711859#0 493711859#2 493711859#4 250325163#1 250325162 236678750#0 236678750#1 236678750#2 250328430#0 250328430#3 250328430#4 250328430#5 250328427#2 250328433#0 250328433#2 628446081 246647169#0 246647169#1 246647169#3 246647169#4 246647169#5 38770925#0 38770925#1 38770925#2 38771996#0 207811355 207811356#0 207811356#1 33306911#0 227388272 227388622#0 227388622#1 222255965#0 222255965#1 23124419 401128351 23124416#0 23124416#1 195364661#1 195364661#2 364043290#0 40927808#0 40927808#2 38765441#1 -246288220#6 -246288220#5 -246288220#4 -246288220#3 -246288220#2 -246288220#1 -246288220#0 -246288222#1 -246288222#0 -655775839#12 -655775839#9 -655775839#8 -655775839#7 -5924483#4 -5924483#3 -5924483#2 -5924483#1 8297011#0 8297013#2 8297013#3 8297013#4 649646585#2 246286774#0 372812102#9 372812102#10 372812102#11 372812102#12 372812102#14 372812102#15 372812102#16 372812102#17 372812102#18 372812102#20 -4237012#3 -4237012#0 4984506#0 4984506#1 8383711#0 8383711#1"/>
    </vehicle>
    <vehicle id="20" depart="5.56">
        <route edges="-48379761#1 -281500653#0 -207807330#1 166482549#0 281500654 48379501 166482547#0 -234295188#3 -234295188#0 -197476980#5 -197476980#4 -197476980#3 -197476980#2 -197476980#0 -75687499#3 330341#1 330341#2 330341#3 330341#4 75687497 316805865 109850046#1 109850046#2 648541444 234296720 234296718#2 41518097 591922929 36814928#0 367808660 380467039#0 380467037 61904421#1 61904421#3 49932192 234575099#0 234575099#2 38060076#0 38060076#1 17513377 17513378#1 292801791#0 -41518100#2 -129810579#1 -129810579#0 129810579#0"/>
    </vehicle>
    <vehicle id="21" depart="5.84">
        <route edges="240343183#1 240343183#2 240343183#3 240343183#4 240343183#5 240343183#7 4082612#3 104867630 -104867630 -232724480#2 -232724480#1 -232724479#3 -233334612#2 4256398#0 4256398#1 4256398#2 30273505#0 30273505#1 14200879#0 14200879#2 14200879#3 30273503#0 30273503#1 31959#0 31959#2 31959#3 17944928 4256129 303559641#0 303559641#1 303559641#2 303559641#4 303559641#7 303559641#8 614306542#0 303559648#0 303559648#2 41588174#0 589640599#1 674756318 279154280#0 201303145 279154266 279154270#1 279154270#2 35085540 235993022#0 235993022#1 235992911#0 235992911#2 41518102#1 26294450#1 41518101#1 41518101#2 121988892 234575098#3 234575101#0 39025894#0 39025894#2 39025894#3 207107597#0 207107600 234572145 17279601#0 17279601#2 17279601#3 449113134 449113135#0 41518099 2509157 379356932 89991893 197476574 197476947#0 197476948#0 89992219#0 89992219#1 75687499#2 197476980#0 197476980#2 197476980#3 197476980#4 197476980#5 234295188#0 234295188#1 160532844#0 160532844#3 160532844#4 160532844#5 -41518094#5 -41518094#4 -41518094#3 -41518094#2 330481 47047809#0 47047809#1 609061152#0 670636345 609061150 201759853#1 201759853#2 496742426 496742428 201760799 -154540881#3 -154540881#2 -154540881#1 -154540881#0 -154540890 2483868#0 154540889#0 2514019#0"/>
    </vehicle>
    <vehicle id="22" depart="6.12">
        <route edges="-73427436#1 73427436#1 -48379506#0 8491226 166483493 558371517 4607834 637034135 637034137#0 330341#1 330341#2 330341#3 330341#4 75687497 316805864 43872913 166491309 -557689377 -17926244 -166585296#4 -166585296#3 -166585296#2 -166585296#1 -166585296#0 -17926245 -4256839 -3284233#3 -3284233#2 -3284233#1 33608038#0 33608038#1 -156159278#0 166364279#9 166364279#10 166364279#11 166364279#12 166364279#13 166364279#14 166364279#15 25803174#0 25803174#3 25803174#4 25803174#6 25803174#8 25803174#9 25803174#10 544787766#0 544787766#1 544787766#2 544787766#3 544787766#4 49932211#0 49932211#2"/>
    </vehicle>
    <vehicle id="23" depart="6.39">
        <route edges="2876710#2 2876710#4 3097607#0 3097607#1 527084930#1 8169022#0 8169022#1 605454355#0 605454355#1 10064542 438313419 49932204#0 49932204#2 49932204#3 49932204#4 49932204#5 156159278#0 156159278#1 608159138 608159133 17926247#0 17926247#1 166490813 608159137 3076611#0 3076611#3 3076611#4 3076611#5 -146418648#4 -146418648#2 -146418648#1 -146418648#0 146418662 303559649#1 4352300 205144457#0 205144457#1 39939644#1 38752553#9 38752553#10 4340907#0 4340907#1 4340907#2 4340907#3 -4340906#7 -4340906#6 -4340911"/>
    </vehicle>
    <vehicle id="24" depart="6.67">
        <route edges="-8258986 8258986 257005240#0 257005240#1 -181799764#3 -181799764#2 -181799764#0 -202053019#8 -202053019#5 -202053019#4 -202053019#1 -202053019#0 -534024688#5 -534024688#4 -534024688#3 -534024688#2 -534024688#1 -534087835#9 -534087835#8 -534087835#7 -534087835#6 -534087835#5 -534087835#4 -534087835#3 -534087835#2 -534087835#1 -534087835#0 -197881958 -31324122#4 -31324122#3 -31324122#2 -31324122#1 -31324122#0 2415103#1 201731834 38907609#0 38907609#2 210335525#0 210335525#1 210335525#2 197477212 203981674 48379490 233811550#0 233811550#1 2467171#0 2467171#1 41518094#0 41518094#3 41518094#4 41518094#5 -160532844#6 -160532844#4 -160532844#3 -160532844#2 -234295188#3 -234295188#0 -197476980#5 -197476980#4 -197476980#3 -197476980#2 -197476980#0 -75687499#3 330341#1 330341#2 330341#3 330341#4 75687497 316805865 109850046#1 109850046#2 648541444 234296720 234296718#2 41518097 591922929 36814928#0 367808660 380467039#0 380467037 61904421#1 61904421#3 49932192 234575099#0 234575099#2 38060076#0 38060076#1 17513377 17513378#1 292801791#0 41910721#1 24936218#1 24936216#0 49934847#1 379356922 527096914#0 527096914#1 40606945#0 589644425#0 589644425#1 31030#1 31030#2 31030#3 31030#4 41588174#0 589640599#1 674756318 279154280#0 -116974799#2 -116974799#1 -207529549 -207529550#2 -207529550#1 -207529550#0 -224187818#5 -224187818#3 -224187818#2 -24417542#5"/>
    </vehicle>
    <vehicle id="25" depart="6.95">
        <route edges="27292988#0 27292988#1 -16297002#0 -237559987#12 -237559987#11 30691665 -181799764#5 -181799764#3 -181799764#2 -181799764#0 -598147041#4 -598147041#1 -598147041#0 -313842642 313842644 -2418032#1 -2513470#4 -2513470#2 -2513470#1 -2513470#0 -202053028#1 -202053028#0 -99961291 -30286837#2 -30286837#1 -30286837#0 -25359286#2 -25359286#1 -25359286#0 -99961324#1 -99961324#0 -25359285#9 -25359285#8 -25359285#7 -25359285#6 -25359285#5 -25359285#4 -25359285#3 -25359285#2 -25359285#1 -6578289#4 -6578289#2 -5044804#12 -5044804#9 -5044804#8 -5044804#7 -5044804#6 -5044804#4 -5044804#3 -5044804#2 -5044804#1 -5044804#0 -17940466 4252419#0 4252419#1 224180702#0 224180702#3 224180702#5 562604875#1 562604875#2 260458986 260458984#0 562604871 49676269 15692877#2 236959505#0 236959505#2"/>
    </vehicle>
    <vehicle id="26" depart="7.23">
        <route edges="-32827251#7 -32827251#6 -32827251#5 -32827251#3 -32827251#2 -32827251#1 -32827251#0 -102856076 -2623292 -188476938#1 -188476938#0 103066789#0 103066789#2 565994686#0 565994686#1 -204339995 -210666258 -210666259#7 -210666259#6 -210666259#4 -210666259#0 -109704302#2 -109704302#1 -109704302#0 -6250977#5 -6250977#1 -6250977#0 67305398#0 67305398#1 51250852#0 564167352 578678142#0 578678142#1 -552496567#4 -552496567#3 -552496567#2 -552496567#1 552496569 -235064146#3 -235064146#2 -235064146#1 -235064146#0 261114095#0 261114095#1 -29046063 -19992580 -19992579#2 -534022319#1 -534022319#0 -4370468#3 -4370468#2 -4370468#1 -4370468#0 534022322#1 -193958143 -26291687#4 -26291687#3 -26291687#2 -26291687#0 -193958142#2 -193958142#1 -193958142#0 -8265571#1 -8265571#0 26291686#0 26291686#1 26291686#2 26291686#3 2483869 29078577#0 34083181 154540890 154540881#0 154540881#1 154540879#0 154540879#1 -154540879#1"/>
    </vehicle>
    <vehicle id="27" depart="7.51">
        <route edges="43892838#2 38901195#0 38901195#1 38901195#2 38901196#0 4255578#0 4255578#1 252614802#0 252614802#1 -157541665#2 -157541665#1 -157541665#0 -608788572#0 -32752736#1 511856174#0 511856174#1 4371832#0 4371832#2 4371832#3 4371832#4 4371832#5 4371832#6 4371832#7 187870646#0 187870646#1 670555714#0 670555714#1 670555712#0 670555712#2 121991562#0 121991562#1 156097875#0 156097875#1 156097875#2 156097875#3 156097875#4 156097875#5 4256586#3 88689770 3754026 422323611#1 3700585#0 3700585#1 3755258#0 3755258#1 3755258#2 -627472868#0 -600378579#3 -600378579#2 -146418648#4 -146418648#2 -146418648#1 -146418648#0 -32592872 -534082989#1 -534082989#0 -146590642#2 -146590642#1 -30193920#2 -30193920#0 -2831540#1 -2831540#0 -29046089#1 -29046089#0 -228015712#1 -330437#1 -2467171#3 -2467171#0 4484039#0 280251141 233811549#0 233811549#1 233811549#3 233811549#4 233811549#5 210335526#0 31324113#1 31324113#2 31324113#3 31324113#5 372683468#0 372683468#1 372683468#2 372683468#3 372683468#4 534087836#0 534087836#1 534024689#1 534024689#2 534024689#3 199518163#0 199518163#3 534024692#0 534024692#3 534024692#4 146590618 199515248#0 199515248#1 199515249#0 201487146#1 199514512#0 199514512#1 538314349#0 230843110#0 230843110#1 230843110#2 230843110#4 230843110#5 202052944#0 202052944#1 202052944#2 202052944#4 202052944#5 202052944#6 199771388#0 199771388#2 199771388#3 199514520#0 199514520#2 199514520#3 23188756#0 23188756#1"/>
    </vehicle>
    <vehicle id="28" depart="7.78">